*Heading
** Job name: ellipse_1hole Model name: Model-1
** Generated by: Abaqus/CAE 2018
*Preprint, echo=NO, model=NO, history=NO, contact=NO
**
** PARTS
**
*Part, name=ellipse_1hole
*End Part
**  
**
** ASSEMBLY
**
*Assembly, name=Assembly
**  
*Instance, name=ellipse_1hole-1, part=ellipse_1hole
*Node
      1,  0.980000019,           0.
      2,  0.959999979,           0.
      3,  0.939999998,           0.
      4,  0.920000017,           0.
      5,  0.899999976,           0.
      6,  0.870000005,           0.
      7,  0.850000024,           0.
      8,  0.829999983,           0.
      9,  0.810000002,           0.
     10,  0.790000021,           0.
     11,  0.769999981,           0.
     12,         0.75,           0.
     13,  0.730000019,           0.
     14,  0.709999979,           0.
     15,  0.689999998,           0.
     16,  0.670000017,           0.
     17,  0.649999976,           0.
     18,  0.620000005,           0.
     19,  0.600000024,           0.
     20,  0.579999983,           0.
** ... 34487 like lines cut
*Element, type=CPS8R
    1,  2242,    47,  2715,  9378, 11592, 11593, 11594, 11595
    2,  9378,  2347,    49,  2242, 11596, 11597, 11598, 11595
    3,   148,  2349,  2482,  2489, 11599, 11600, 11601, 11602
    4,   149,  2350,  2467,  2476, 11603, 11604, 11605, 11606
    5,   150,  2351,  2468,  2477, 11607, 11608, 11609, 11610
    6,  2353,  2352,  2478,  2469, 11611, 11612, 11613, 11614
    7,  2354,   151,  2811,  2490, 11615, 11616, 11617, 11618
    8,  2812,  2491,  2355,   152, 11619, 11620, 11621, 11622
    9,  2813,  2492,  2356,   153, 11623, 11624, 11625, 11626
   10,  2814,  2493,  2357,   154, 11627, 11628, 11629, 11630
   11,  2815,  2494,  2358,   155, 11631, 11632, 11633, 11634
   12,  2816,  2495,  2359,   156, 11635, 11636, 11637, 11638
   13,  2817,  2496,  2360,   157, 11639, 11640, 11641, 11642
   14,  2818,  2497,  2361,   158, 11643, 11644, 11645, 11646
   15,   160,  2362,  2498,  2820, 11647, 11648, 11649, 11650
   16,   161,  2363,  2499,  2821, 11651, 11652, 11653, 11654
   17,   162,  2364,  2500,  2822, 11655, 11656, 11657, 11658
   18,  2366,  2365,  2823,  2501, 11659, 11660, 11661, 11662
   19,  2824,  2502,  2367,   163, 11663, 11664, 11665, 11666
   20,  2825,  2503,  2368,   164, 11667, 11668, 11669, 11670
** ... 11305 like lines cut
*Nset, nset=Set-1, generate
     1,  34507,      1
*Elset, elset=Set-1, generate
     1,  11325,      1
** Section: hole
*Solid Section, elset=Set-1, material=linear
,
*End Instance
**  
*Nset, nset=Set-27, instance=ellipse_1hole-1
   193,   194,   195,   196,   197,   198,   199,   200,   201,   202,   203,   204,   205,   206,   207,   208
   209,   210,   211,   212,   213,   214,   215,   216,   217,   218,   219,   220,   221,   222,   223,   224
   225,   226,   227,   228,   229,   230,   231,   232,   233,   234,   235,   236,   237,   238,   239,   240
   241,   242,   243,   244,   245,   246,   247,   248,   249,   250,   251,   252,   253,   254,   255,   256
   257,   258,  2399,  2400,  2401,  2402,  2403,  2404,  2405,  2406,  2407,  2408,  2409,  2410,  2411,  2412
  2413,  2414,  2415,  2416,  2417,  2418,  2419,  2420,  2421,  2422,  2423,  2424,  2425,  2426,  2427,  2428
  2429,  2430,  2431,  2432,  2433,  2434,  2435,  2436,  2437,  2438,  2439,  2440,  2441,  2442,  2443,  2444
  2445,  2446,  2447,  2448,  2449,  2450,  2451,  2452,  2453,  2454,  2455,  2456,  2457,  2458,  2459,  2460
  2461,  2462,  2463,  2464, 14937, 14940, 14944, 14946, 14950, 15093, 15102, 15104, 15109, 15120, 15130, 15133
 15135, 15137, 15139, 15142, 15145, 15148, 15152, 15156, 15266, 15270, 15275, 15318, 15324, 15327, 15329, 15367
 15404, 15409, 15448, 15449, 15492, 15657, 15661, 15675, 15679, 17008, 17014, 19107, 19134, 19138, 19142, 19149
 19156, 19160, 19164, 19238, 19304, 19308, 19361, 19366, 19509, 19513, 19515, 19519, 19521, 19525, 19569, 19586
 19589, 19611, 19631, 19654, 19657, 19694, 20778, 20877, 20902, 20912, 21039, 21258, 21772, 22439, 23398, 23489
 23541, 23593, 23868, 23956, 24046, 24096, 24166, 24897, 24899, 24900, 24903, 24904, 24909, 24918, 24919, 24920
 24923, 24926, 24928, 24929, 24931, 24934, 24935, 24939, 24943, 24945, 24947, 24948, 24954, 24959, 24961, 24962
 24963, 24965, 24968, 24970, 24971, 24973, 24974, 24976, 25341, 25346, 25349, 25354, 25356, 25370, 25373, 25374
 25376, 25390, 25393, 25394, 25396, 25402, 25426, 25434
*Elset, elset=Set-27, instance=ellipse_1hole-1
  872,  873,  874,  875,  876,  913,  916,  917,  919,  922,  924,  925,  926,  927,  928,  929
  930,  931,  932,  933,  962,  964,  965,  977,  979,  980,  981,  992, 1002, 1003, 1013, 1014
 1026, 1067, 1068, 1072, 1073, 1424, 1425, 1983, 1991, 1993, 1994, 1996, 1998, 1999, 2000, 2019
 2036, 2037, 2052, 2053, 2091, 2092, 2093, 2094, 2095, 2096, 2108, 2113, 2114, 2121, 2127, 2135
 2136, 2147, 2500, 2529, 2537, 2540, 2577, 2650, 2818, 3044, 3360, 3393, 3410, 3427, 3519, 3546
 3578, 3594, 3621, 3928, 3929, 3930, 3931, 3932, 3934, 3937, 3938, 3939, 3940, 3941, 3942, 3943
 3944, 3945, 3946, 3948, 3949, 3950, 3951, 3952, 3954, 3956, 3957, 3958, 3959, 3960, 3961, 3962
 3963, 3964, 3965, 3966, 4260, 4265, 4268, 4271, 4272, 4282, 4285, 4287, 4289, 4299, 4304, 4305
 4306, 4312, 4323, 4326
*Elset, elset=_Surf-15_S1, internal, instance=ellipse_1hole-1
    1,   50,   98,   99,  145,  147,  192,  193,  194,  237,  239,  283,  285,  333,  334,  378
  379,  422,  423,  470,  516,  565,  614,  661,  706,  708,  752,  754,  800,  802,  849,  851
  897,  898,  948,  949,  966,  967,  982,  994, 1004, 1015, 1074, 1086, 1097, 1107, 1117, 1129
 1130, 1140, 1141, 1151, 1152, 1163, 1174, 1185, 1197, 1207, 1218, 1230, 1242, 1254, 1290, 1291
 1302, 1314, 1695, 1715, 1734, 1754, 1884, 1894, 1903, 1911, 1937, 3758, 3976, 4020, 4022, 4023
 4025, 4026, 4027, 4034, 4037, 4039, 4042, 4044, 4047, 4050, 4052, 4054, 4060, 4062, 4064, 4066
 4071, 4072, 4074, 4075, 4076, 4080, 4082, 4084, 4086, 4088, 4089, 4091, 4092, 4093, 4095, 4098
 4169, 4182, 4183, 4184, 4185, 4201, 4210, 4219
*Elset, elset=_Surf-15_S3, internal, instance=ellipse_1hole-1
    2,   48,  146,  238,  331,  376,  420,  468,  514,  563,  612,  659,  707,  753,  801,  895
  946, 1266, 1278, 1550, 1574, 1601, 1625, 1650, 1671, 1672, 1694, 1714, 1773, 1789, 1806, 1822
 1836, 1850, 1863, 1872, 1873, 1883, 1893, 1918, 1924, 1929, 1933, 1936, 3760, 3849, 3850, 3853
 3854, 3855, 3856, 3857, 3858, 3859, 3860, 3861, 3863, 3864, 3865, 3866, 3867, 3868, 3869, 3870
 3871, 3873, 3874, 3875, 3876, 3877, 3878, 3879, 3880, 3881, 3883, 3884, 3885, 3886, 3887
*Elset, elset=_Surf-15_S4, internal, instance=ellipse_1hole-1
 1935,
*Surface, type=ELEMENT, name=Surf-15
_Surf-15_S1, S1
_Surf-15_S3, S3
_Surf-15_S4, S4
*Elset, elset=_Surf-16_S1, internal, instance=ellipse_1hole-1
 1046, 1048, 1050, 1312, 1315, 1324, 1326, 1345, 1362, 1384, 1405, 1440, 1468, 1496, 1525, 1552
 1576, 1603, 1627, 1652, 1674, 1697, 1717, 1736, 1756, 1775, 1791, 1808, 1824, 1838, 1852, 1865
 1875, 1886, 1896, 1905, 1926, 1931, 2149, 2190, 2235, 2278, 2318, 2358, 2397, 4069, 4070, 4104
 4105, 4107, 4108, 4109, 4110, 4111, 4112, 4113, 4116, 4118, 4120, 4122, 4124, 4127, 4129, 4131
 4133, 4135, 4137, 4139, 4142, 4144, 4145, 4147, 4149, 4152, 4154, 4156, 4158, 4160, 4162, 4166
 4170, 4172, 4174, 4175, 4176, 4177, 4186, 4187, 4188, 4192
*Elset, elset=_Surf-16_S3, internal, instance=ellipse_1hole-1
 1313, 1913, 1920, 1935, 3804, 3807, 3841, 4102, 4179
*Elset, elset=_Surf-16_S2, internal, instance=ellipse_1hole-1
 3758,
*Surface, type=ELEMENT, name=Surf-16
_Surf-16_S1, S1
_Surf-16_S3, S3
_Surf-16_S2, S2
*Elset, elset=_Surf-17_S2, internal, instance=ellipse_1hole-1
 2,
*Elset, elset=_Surf-17_S1, internal, instance=ellipse_1hole-1
    3,    4,    5,    6,    7,   15,   16,   17,   18,   27,   28,   29,   30,   39,   40,   41
   42,   49, 3889, 3967, 3978, 3979, 4019, 4234, 4243, 4252
*Elset, elset=_Surf-17_S3, internal, instance=ellipse_1hole-1
    8,    9,   10,   11,   12,   13,   14,   19,   20,   21,   22,   23,   24,   25,   26,   31
   32,   33,   34,   35,   36,   37,   38,   43,   44,   45,   46,   47, 3890, 3892, 3893, 3894
 3895, 3896, 3897, 3898, 3899, 3900, 3902, 3903, 3904, 3905, 3906, 3907, 3908, 3909, 3910, 3912
 3913, 3914, 3915, 3916, 3917, 3918, 3919, 3920, 3922, 3923, 3924, 3925, 3926, 3969, 3981, 3993
 3994, 3995, 4003, 4004, 4005, 4013, 4014, 4015
*Elset, elset=_Surf-17_S4, internal, instance=ellipse_1hole-1
 48,
*Surface, type=ELEMENT, name=Surf-17
_Surf-17_S2, S2
_Surf-17_S1, S1
_Surf-17_S4, S4
_Surf-17_S3, S3
*End Assembly
** 
** MATERIALS
** 
*Material, name=linear
*Elastic
1000., 0.3
** ----------------------------------------------------------------
** 
** STEP: Step-1
** 
*Step, name=Step-1, nlgeom=NO
*Static
1., 1., 1e-05, 1.
** 
** BOUNDARY CONDITIONS
** 
** Name: ellipse_fix Type: Displacement/Rotation
*Boundary
Set-27, 1, 1
Set-27, 2, 2
Set-27, 6, 6
** 
** LOADS
** 
** Name: left   Type: Pressure Using Field: sin
*Dload, op=NEW
ellipse_1hole-1.2, P2, -1.7278
ellipse_1hole-1.3, P1, -18.9122
ellipse_1hole-1.4, P1, -25.679
ellipse_1hole-1.5, P1, -32.3444
ellipse_1hole-1.6, P1, -38.8822
ellipse_1hole-1.7, P1, -45.2666
ellipse_1hole-1.8, P3, -51.4723
ellipse_1hole-1.9, P3, -57.4748
ellipse_1hole-1.10, P3, -63.2506
ellipse_1hole-1.11, P3, -68.7767
ellipse_1hole-1.12, P3, -74.0314
ellipse_1hole-1.13, P3, -78.9939
ellipse_1hole-1.14, P3, -83.6447
ellipse_1hole-1.15, P1, -89.9965
ellipse_1hole-1.16, P1, -93.7904
ellipse_1hole-1.17, P1, -97.2142
ellipse_1hole-1.18, P1, -100.254
ellipse_1hole-1.19, P3, -102.899
ellipse_1hole-1.20, P3, -105.137
ellipse_1hole-1.21, P3, -106.961
** ... 80 like lines cut
** Name: right   Type: Pressure Using Field: sin
*Dload, op=NEW
ellipse_1hole-1.1046, P1, -64.9448
ellipse_1hole-1.1048, P1, -69.5913
ellipse_1hole-1.1050, P1, -73.9631
ellipse_1hole-1.1312, P1, -57.5005
ellipse_1hole-1.1313, P3, -60.042
ellipse_1hole-1.1315, P1, -4.71064
ellipse_1hole-1.1324, P1, -52.2499
ellipse_1hole-1.1326, P1, -78.043
ellipse_1hole-1.1345, P1, -81.815
ellipse_1hole-1.1362, P1, -85.264
ellipse_1hole-1.1384, P1, -88.3766
ellipse_1hole-1.1405, P1, -91.1403
ellipse_1hole-1.1440, P1, -93.5444
ellipse_1hole-1.1468, P1, -95.5793
ellipse_1hole-1.1496, P1, -97.237
ellipse_1hole-1.1525, P1, -98.5109
ellipse_1hole-1.1552, P1, -99.6917
ellipse_1hole-1.1576, P1, -99.9877
ellipse_1hole-1.1603, P1, -99.889
ellipse_1hole-1.1627, P1, -99.3961
** ... 80 like lines cut
** Name: up   Type: Pressure Using Field: sin up
*Dload, op=NEW
ellipse_1hole-1.1, P1, -4.71064
ellipse_1hole-1.2, P3, -1.57073
ellipse_1hole-1.50, P1, -7.84591
ellipse_1hole-1.99, P1, -14.0901
ellipse_1hole-1.147, P1, -20.2787
ellipse_1hole-1.194, P1, -26.3873
ellipse_1hole-1.239, P1, -32.3917
ellipse_1hole-1.285, P1, -38.2683
ellipse_1hole-1.333, P1, -46.793
ellipse_1hole-1.334, P1, -49.5459
ellipse_1hole-1.378, P1, -52.2499
ellipse_1hole-1.379, P1, -54.9023
ellipse_1hole-1.422, P1, -57.5005
ellipse_1hole-1.423, P1, -60.042
ellipse_1hole-1.470, P1, -62.5243
ellipse_1hole-1.516, P1, -67.3013
ellipse_1hole-1.565, P1, -71.8126
ellipse_1hole-1.614, P1, -76.0406
ellipse_1hole-1.661, P1, -79.9685
ellipse_1hole-1.708, P1, -83.5807
** ... 180 like lines cut
** 
** OUTPUT REQUESTS
** 
*Restart, write, frequency=0
** 
** FIELD OUTPUT: F-Output-1
** 
*Output, field, variable=PRESELECT
** 
** HISTORY OUTPUT: H-Output-1
** 
*Output, history, variable=PRESELECT
*End Step
