*Heading
 P = 100, and cos force on the right side
** Job name: rectangle Model name: Model-1
** Generated by: Abaqus/CAE 2018
*Preprint, echo=NO, model=NO, history=NO, contact=NO
**
** PARTS
**
*Part, name=Part-1
*End Part
**  
**
** ASSEMBLY
**
*Assembly, name=Assembly
**  
*Instance, name=Part-1-1, part=Part-1
*Node
      1,           0.,           0.
      2, 0.00999999978,           0.
      3, 0.0199999996,           0.
      4, 0.0299999993,           0.
      5, 0.0399999991,           0.
      6, 0.0500000007,           0.
      7, 0.0599999987,           0.
      8, 0.0700000003,           0.
      9, 0.0799999982,           0.
     10, 0.0900000036,           0.
     11,  0.100000001,           0.
     12,  0.109999999,           0.
     13,  0.119999997,           0.
     14,  0.129999995,           0.
     15,  0.140000001,           0.
     16,  0.150000006,           0.
     17,  0.159999996,           0.
     18,  0.170000002,           0.
     19,  0.180000007,           0.
     20,  0.189999998,           0.
** ... 30381 like lines cut
*Element, type=CPS8R
    1,     1,     2,   103,   102, 10202, 10203, 10204, 10205
    2,     2,     3,   104,   103, 10206, 10207, 10208, 10203
    3,     3,     4,   105,   104, 10209, 10210, 10211, 10207
    4,     4,     5,   106,   105, 10212, 10213, 10214, 10210
    5,     5,     6,   107,   106, 10215, 10216, 10217, 10213
    6,     6,     7,   108,   107, 10218, 10219, 10220, 10216
    7,     7,     8,   109,   108, 10221, 10222, 10223, 10219
    8,     8,     9,   110,   109, 10224, 10225, 10226, 10222
    9,     9,    10,   111,   110, 10227, 10228, 10229, 10225
   10,    10,    11,   112,   111, 10230, 10231, 10232, 10228
   11,    11,    12,   113,   112, 10233, 10234, 10235, 10231
   12,    12,    13,   114,   113, 10236, 10237, 10238, 10234
   13,    13,    14,   115,   114, 10239, 10240, 10241, 10237
   14,    14,    15,   116,   115, 10242, 10243, 10244, 10240
   15,    15,    16,   117,   116, 10245, 10246, 10247, 10243
   16,    16,    17,   118,   117, 10248, 10249, 10250, 10246
   17,    17,    18,   119,   118, 10251, 10252, 10253, 10249
   18,    18,    19,   120,   119, 10254, 10255, 10256, 10252
   19,    19,    20,   121,   120, 10257, 10258, 10259, 10255
   20,    20,    21,   122,   121, 10260, 10261, 10262, 10258
** ... 9980 like lines cut
*Nset, nset=Set-1, generate
     1,  30401,      1
*Elset, elset=Set-1, generate
     1,  10000,      1
** Section: linear_elasticity
*Solid Section, elset=Set-1, material=linear_elasticity
,
*End Instance
**  
*Nset, nset=Set-1, instance=Part-1-1
     1,   102,   203,   304,   405,   506,   607,   708,   809,   910,  1011,  1112,  1213,  1314,  1415,  1516
  1617,  1718,  1819,  1920,  2021,  2122,  2223,  2324,  2425,  2526,  2627,  2728,  2829,  2930,  3031,  3132
  3233,  3334,  3435,  3536,  3637,  3738,  3839,  3940,  4041,  4142,  4243,  4344,  4445,  4546,  4647,  4748
  4849,  4950,  5051,  5152,  5253,  5354,  5455,  5556,  5657,  5758,  5859,  5960,  6061,  6162,  6263,  6364
  6465,  6566,  6667,  6768,  6869,  6970,  7071,  7172,  7273,  7374,  7475,  7576,  7677,  7778,  7879,  7980
  8081,  8182,  8283,  8384,  8485,  8586,  8687,  8788,  8889,  8990,  9091,  9192,  9293,  9394,  9495,  9596
  9697,  9798,  9899, 10000, 10101, 10205, 10505, 10706, 10907, 11108, 11309, 11510, 11711, 11912, 12113, 12314
 12515, 12716, 12917, 13118, 13319, 13520, 13721, 13922, 14123, 14324, 14525, 14726, 14927, 15128, 15329, 15530
 15731, 15932, 16133, 16334, 16535, 16736, 16937, 17138, 17339, 17540, 17741, 17942, 18143, 18344, 18545, 18746
 18947, 19148, 19349, 19550, 19751, 19952, 20153, 20354, 20555, 20756, 20957, 21158, 21359, 21560, 21761, 21962
 22163, 22364, 22565, 22766, 22967, 23168, 23369, 23570, 23771, 23972, 24173, 24374, 24575, 24776, 24977, 25178
 25379, 25580, 25781, 25982, 26183, 26384, 26585, 26786, 26987, 27188, 27389, 27590, 27791, 27992, 28193, 28394
 28595, 28796, 28997, 29198, 29399, 29600, 29801, 30002, 30203
*Elset, elset=Set-1, instance=Part-1-1, generate
    1,  9901,   100
*Nset, nset=Set-2, instance=Part-1-1
     1,     2,     3,     4,     5,     6,     7,     8,     9,    10,    11,    12,    13,    14,    15,    16
    17,    18,    19,    20,    21,    22,    23,    24,    25,    26,    27,    28,    29,    30,    31,    32
    33,    34,    35,    36,    37,    38,    39,    40,    41,    42,    43,    44,    45,    46,    47,    48
    49,    50,    51,    52,    53,    54,    55,    56,    57,    58,    59,    60,    61,    62,    63,    64
    65,    66,    67,    68,    69,    70,    71,    72,    73,    74,    75,    76,    77,    78,    79,    80
    81,    82,    83,    84,    85,    86,    87,    88,    89,    90,    91,    92,    93,    94,    95,    96
    97,    98,    99,   100,   101, 10202, 10206, 10209, 10212, 10215, 10218, 10221, 10224, 10227, 10230, 10233
 10236, 10239, 10242, 10245, 10248, 10251, 10254, 10257, 10260, 10263, 10266, 10269, 10272, 10275, 10278, 10281
 10284, 10287, 10290, 10293, 10296, 10299, 10302, 10305, 10308, 10311, 10314, 10317, 10320, 10323, 10326, 10329
 10332, 10335, 10338, 10341, 10344, 10347, 10350, 10353, 10356, 10359, 10362, 10365, 10368, 10371, 10374, 10377
 10380, 10383, 10386, 10389, 10392, 10395, 10398, 10401, 10404, 10407, 10410, 10413, 10416, 10419, 10422, 10425
 10428, 10431, 10434, 10437, 10440, 10443, 10446, 10449, 10452, 10455, 10458, 10461, 10464, 10467, 10470, 10473
 10476, 10479, 10482, 10485, 10488, 10491, 10494, 10497, 10500
*Elset, elset=Set-2, instance=Part-1-1, generate
   1,  100,    1
*Elset, elset=_Surf-1_S2, internal, instance=Part-1-1, generate
   100,  10000,    100
*Surface, type=ELEMENT, name=Surf-1
_Surf-1_S2, S2
*End Assembly
** 
** MATERIALS
** 
*Material, name=linear_elasticity
*Elastic
1000., 0.3
** 
** BOUNDARY CONDITIONS
** 
** Name: ux_left Type: Displacement/Rotation
*Boundary
Set-1, 1, 1
Set-1, 6, 6
** ----------------------------------------------------------------
** 
** STEP: Step-1
** 
*Step, name=Step-1, nlgeom=NO
*Static
1., 1., 1e-05, 1.
** 
** BOUNDARY CONDITIONS
** 
** Name: ux_left Type: Displacement/Rotation
*Boundary
Set-1, 2, 2
** 
** LOADS
** 
** Name: right   Type: Pressure Using Field: cos
*Dload
Part-1-1.100, P2, -1.57073
Part-1-1.200, P2, -4.71064
Part-1-1.300, P2, -7.84591
Part-1-1.400, P2, -10.9734
Part-1-1.500, P2, -14.0901
Part-1-1.600, P2, -17.1929
Part-1-1.700, P2, -20.2787
Part-1-1.800, P2, -23.3445
Part-1-1.900, P2, -26.3873
Part-1-1.1000, P2, -29.404
Part-1-1.1100, P2, -32.3917
Part-1-1.1200, P2, -35.3475
Part-1-1.1300, P2, -38.2683
Part-1-1.1400, P2, -41.1514
Part-1-1.1500, P2, -43.9939
Part-1-1.1600, P2, -46.793
Part-1-1.1700, P2, -49.5459
Part-1-1.1800, P2, -52.2499
Part-1-1.1900, P2, -54.9023
Part-1-1.2000, P2, -57.5005
** ... 80 like lines cut
** 
** OUTPUT REQUESTS
** 
*Restart, write, frequency=0
** 
** FIELD OUTPUT: F-Output-1
** 
*Output, field, variable=PRESELECT
** 
** HISTORY OUTPUT: H-Output-1
** 
*Output, history, variable=PRESELECT
*End Step
