*Heading
** Job name: 1hole_all_pressure Model name: Model-1
** Generated by: Abaqus/CAE 2018
*Preprint, echo=NO, model=NO, history=NO, contact=NO
**
** PARTS
**
*Part, name=hole1
*End Part
**  
**
** ASSEMBLY
**
*Assembly, name=Assembly
**  
*Instance, name=hole1-1, part=hole1
*Node
      1,  0.980000019,           1.
      2,  0.959999979,           1.
      3,  0.939999998,           1.
      4,  0.920000017,           1.
      5,  0.899999976,           1.
      6,  0.870000005,           1.
      7,  0.850000024,           1.
      8,  0.829999983,           1.
      9,  0.810000002,           1.
     10,  0.790000021,           1.
     11,  0.769999981,           1.
     12,         0.75,           1.
     13,  0.730000019,           1.
     14,  0.709999979,           1.
     15,  0.689999998,           1.
     16,  0.670000017,           1.
     17,  0.649999976,           1.
     18,  0.629999995,           1.
     19,  0.600000024,           1.
     20,  0.579999983,           1.
** ... 30246 like lines cut
*Element, type=CPS8R
   1,  1972,     1,  2608,  8424, 10182, 10183, 10184, 10185
   2,  2179,  8424,  2419,   192, 10186, 10187, 10188, 10189
   3,  2777,  2178,   192,  2419, 10190, 10191, 10188, 10192
   4,  2421,   190,  2177,  2776, 10193, 10194, 10195, 10196
   5,  2422,   189,  2176,  2775, 10197, 10198, 10199, 10200
   6,  2423,   188,  2175,  2774, 10201, 10202, 10203, 10204
   7,  2562,  2173,  2174,  2773, 10205, 10206, 10207, 10208
   8,  2172,  2772,  2425,   186, 10209, 10210, 10211, 10212
   9,  2171,  2771,  2426,   185, 10213, 10214, 10215, 10216
  10,  2170,  2770,  2427,   184, 10217, 10218, 10219, 10220
  11,  2169,  2769,  2428,   183, 10221, 10222, 10223, 10224
  12,  2168,  2768,  2429,   182, 10225, 10226, 10227, 10228
  13,  2167,  2767,  2430,   181, 10229, 10230, 10231, 10232
  14,  2166,  2766,  2431,   180, 10233, 10234, 10235, 10236
  15,  2165,  2765,  2432,   179, 10237, 10238, 10239, 10240
  16,  2433,   178,  2164,  2764, 10241, 10242, 10243, 10244
  17,  2434,   177,  2163,  2763, 10245, 10246, 10247, 10248
  18,  2435,   176,  2162,  2762, 10249, 10250, 10251, 10252
  19,  2561,  2160,  2161,  2761, 10253, 10254, 10255, 10256
  20,  2159,  2760,  2437,   174, 10257, 10258, 10259, 10260
** ... 9884 like lines cut
*Nset, nset=Set-1, generate
     1,  30266,      1
*Elset, elset=Set-1, generate
    1,  9904,     1
** Section: hole
*Solid Section, elset=Set-1, material=linear
,
*End Instance
**  
*Nset, nset=Set-22, instance=hole1-1
    49,    50,    51,    52,    53,    54,    55,    56,    57,    58,    59,    60,    61,    62,    63,    64
    65,    66,    67,    68,    69,    70,    71,    72,    73,    74,    75,    76,    77,    78,    79,    80
    81,    82,    83,    84,    85,    86,    87,    88,    89,    90,    91,    92,    93,    94,    95,    96
    97,  2024,  2025,  2026,  2027,  2028,  2029,  2030,  2031,  2032,  2033,  2034,  2035,  2036,  2037,  2038
  2039,  2040,  2041,  2042,  2043,  2044,  2045,  2046,  2047,  2048,  2049,  2050,  2051,  2052,  2053,  2054
  2055,  2056,  2057,  2058,  2059,  2060,  2061,  2062,  2063,  2064,  2065,  2066,  2067,  2068,  2069,  2070
  2071,  2072,  2073,  2074,  2075, 15460, 15524, 15568, 15612, 15631, 15635, 17429, 17532, 17702, 17839, 17959
 18086, 18204, 18338, 18439, 18534, 18660, 18783, 18880, 18986, 19041, 19091, 19137, 19205, 19238, 19260, 19290
 19320, 19343, 19371, 19405, 19438, 19467, 19494, 19546, 19580, 19609, 19650, 19702, 19741, 19863, 19968, 20093
 20212, 20318, 20554, 20667, 20780, 20885, 21818, 21825, 21828, 21837, 21840, 22515, 22518, 22521, 22526, 22564
 22566, 22568, 22574, 22575, 22576, 22578, 22582, 22584, 22590, 22592, 22596, 22597, 22598, 22599, 22600, 22602
 22606, 22610, 22612, 22613, 22614, 22615, 22619, 22620, 22621, 22622, 22623, 22625, 22629, 22633, 22637, 22638
 22639, 22640, 22644, 22645, 22646, 22647, 22648, 22649, 22658
*Elset, elset=Set-22, instance=hole1-1
 1386, 1404, 1416, 1428, 1433, 1434, 1934, 1969, 2024, 2068, 2107, 2149, 2190, 2233, 2268, 2300
 2342, 2382, 2416, 2451, 2468, 2484, 2499, 2522, 2533, 2542, 2551, 2561, 2568, 2578, 2590, 2600
 2609, 2618, 2638, 2650, 2661, 2675, 2691, 2704, 2744, 2778, 2819, 2860, 2895, 2975, 3014, 3052
 3087, 3431, 3434, 3435, 3440, 3441, 3843, 3845, 3847, 3849, 3880, 3882, 3884, 3888, 3889, 3890
 3892, 3894, 3896, 3900, 3902, 3904, 3905, 3906, 3907, 3908, 3910, 3912, 3914, 3916, 3917, 3918
 3919, 3921, 3922, 3923, 3924, 3925, 3927, 3929, 3931, 3933, 3934, 3935, 3936, 3938, 3939, 3940
 3941, 3942, 3944, 3951
*Nset, nset=Set-23, instance=hole1-1
   193,   194,   195,   196,   197,   198,   199,   200,   201,   202,   203,   204,   205,   206,   207,   208
   209,   210,   211,   212,   213,   214,   215,   216,   217,   218,   219,   220,   221,   222,   223,   224
   225,   226,   227,   228,   229,   230,   231,   232,   233,   234,   235,   236,   237,   238,   239,   240
   241,   242,   243,   244,  2180,  2181,  2182,  2183,  2184,  2185,  2186,  2187,  2188,  2189,  2190,  2191
  2192,  2193,  2194,  2195,  2196,  2197,  2198,  2199,  2200,  2201,  2202,  2203,  2204,  2205,  2206,  2207
  2208,  2209,  2210,  2211,  2212,  2213,  2214,  2215,  2216,  2217,  2218,  2219,  2220,  2221,  2222,  2223
  2224,  2225,  2226,  2227,  2228,  2229,  2230,  2231,  2232,  2233,  2234,  2235,  2236,  2237,  2238,  2239
  2240,  2241,  2242,  2243,  2244,  2245,  2246,  2247,  2248,  2249,  2250,  2251,  2252,  2253,  2254,  2255
  2256,  2257,  2258,  2259,  2260,  2261,  2262,  2263,  2264,  2265,  2266,  2267,  2268,  2269,  2270,  2271
  2272,  2273,  2274,  2275,  2276,  2277,  2278,  2279,  2280,  2281, 12314, 12320, 12322, 12474, 12482, 12488
 12500, 12572, 12573, 12576, 12642, 12706, 12710, 12767, 12814, 12817, 12870, 12873, 12878, 12932, 12982, 12984
 12988, 12994, 13316, 13319, 13321, 15706, 15717, 15801, 15808, 15868, 15871, 15931, 15935, 15938, 15998, 16056
 16108, 16110, 16169, 16219, 16221, 16225, 16231, 16304, 16308, 16311, 16915, 16918, 16920, 16935, 16991, 16993
 16999, 17005, 17007, 17047, 17084, 17096, 17142, 17146, 17147, 17152, 17156, 17167, 17235, 17237, 17239, 17245
 17249, 17288, 17327, 17370, 17390, 17393, 17408, 17420, 17424, 17426, 17427, 18725, 18728, 18824, 18927, 18930
 19088, 19129, 19133, 19368, 19607, 19740, 19794, 19798, 19803, 21093, 21097, 21195, 21242, 21472, 21498, 21664
 21740, 22102, 22104, 22105, 22108, 22109, 22112, 22114, 22116, 22117, 22119, 22121, 22122, 22124, 22127, 22129
 22131, 22134, 22135, 22137, 22139, 22143, 22144, 22146, 22147, 22150, 22151, 22152, 22154, 22156, 22159, 22160
 22162, 22163, 22166, 22168, 22171, 22172, 22174, 22210, 22216, 22218, 22222, 22227, 22228, 22243, 22250, 22254
 22274, 22280, 22285, 22832
*Elset, elset=Set-23, instance=hole1-1
  555,  556,  557,  597,  599,  601,  604,  623,  624,  625,  642,  658,  659,  674,  687,  688
  702,  703,  705,  719,  733,  734,  735,  736,  819,  820,  821, 1454, 1457, 1479, 1481, 1497
 1498, 1514, 1515, 1516, 1532, 1548, 1561, 1562, 1577, 1591, 1592, 1593, 1594, 1613, 1614, 1615
 1787, 1789, 1790, 1794, 1809, 1810, 1812, 1813, 1814, 1825, 1836, 1839, 1852, 1853, 1854, 1855
 1857, 1860, 1878, 1879, 1880, 1881, 1882, 1893, 1904, 1916, 1921, 1922, 1926, 1930, 1931, 1932
 1933, 2363, 2364, 2396, 2431, 2432, 2483, 2496, 2497, 2576, 2660, 2703, 2721, 2722, 2723, 3157
 3158, 3193, 3208, 3290, 3300, 3358, 3384, 3572, 3573, 3574, 3575, 3576, 3577, 3578, 3579, 3580
 3581, 3582, 3583, 3584, 3585, 3586, 3587, 3588, 3589, 3590, 3592, 3593, 3594, 3595, 3596, 3597
 3598, 3599, 3600, 3601, 3602, 3603, 3604, 3605, 3606, 3607, 3608, 3609, 3610, 3633, 3636, 3637
 3640, 3642, 3644, 3656, 3661, 3664, 3675, 3679, 3682, 4094
*Elset, elset=_Surf-10_S4, internal, instance=hole1-1
    2,    8,    9,   10,   11,   12,   13,   14,   15,   20,   21,   22,   23,   24,   25,   26
   27,   32,   33,   34,   35,   36,   37,   38,   39,   43,   45,   46,   47,   50, 1760, 1771
 1782, 3523, 3525, 3526, 3527, 3528, 3529, 3530, 3531, 3532, 3533, 3534, 3535, 3536, 3537, 3538
 3539, 3541, 3542, 3543, 3544, 3545, 3546, 3547, 3548, 3549, 3550, 3551, 3553, 3554, 3555, 3556
 3557, 3558, 3559, 3560, 3561, 3562, 3563, 3564, 3566, 3567, 3568, 3569, 3570, 3728
*Elset, elset=_Surf-10_S2, internal, instance=hole1-1
    3,    4,    5,    6,    7,   16,   17,   18,   19,   28,   29,   30,   31,   40,   41,   42
   44,   48, 3705, 3709, 3718, 3720
*Surface, type=ELEMENT, name=Surf-10
_Surf-10_S4, S4
_Surf-10_S2, S2
*Elset, elset=_Surf-11_S4, internal, instance=hole1-1
    2,    8,    9,   10,   11,   12,   13,   14,   15,   20,   21,   22,   23,   24,   25,   26
   27,   32,   33,   34,   35,   36,   37,   38,   39,   43,   45,   46,   47,   50, 1760, 1771
 1782, 3523, 3525, 3526, 3527, 3528, 3529, 3530, 3531, 3532, 3533, 3534, 3535, 3536, 3537, 3538
 3539, 3541, 3542, 3543, 3544, 3545, 3546, 3547, 3548, 3549, 3550, 3551, 3553, 3554, 3555, 3556
 3557, 3558, 3559, 3560, 3561, 3562, 3563, 3564, 3566, 3567, 3568, 3569, 3570, 3728
*Elset, elset=_Surf-11_S2, internal, instance=hole1-1
    3,    4,    5,    6,    7,   16,   17,   18,   19,   28,   29,   30,   31,   40,   41,   42
   44,   48, 3705, 3709, 3718, 3720
*Surface, type=ELEMENT, name=Surf-11
_Surf-11_S4, S4
_Surf-11_S2, S2
*Elset, elset=_Surf-12_S1, internal, instance=hole1-1
 1386, 1404, 1416, 1428, 1934, 1969, 2107, 2149, 2190, 2233, 2268, 2300, 2416, 2451, 2468, 2484
 2499, 2522, 2533, 2542, 2551, 2561, 2568, 2578, 2590, 2600, 2609, 2618, 2638, 2650, 2661, 2675
 2691, 2704, 2744, 2778, 2819, 2860, 2895, 3843, 3845, 3847, 3880, 3882, 3884, 3888, 3889, 3890
 3892, 3894, 3896, 3900, 3902, 3904, 3905, 3906, 3907, 3908, 3910, 3912, 3914, 3916, 3917, 3918
 3919, 3921, 3922, 3923, 3924, 3925, 3927, 3929, 3931, 3933, 3934, 3935, 3936, 3938, 3939, 3940
*Elset, elset=_Surf-12_S3, internal, instance=hole1-1
 1433, 2024, 2068, 2342, 2382, 3434, 3435, 3440, 3441, 3951
*Elset, elset=_Surf-12_S4, internal, instance=hole1-1
 1434, 3849
*Elset, elset=_Surf-12_S2, internal, instance=hole1-1
 2975, 3014, 3052, 3087, 3431, 3941, 3942, 3944
*Surface, type=ELEMENT, name=Surf-12
_Surf-12_S1, S1
_Surf-12_S3, S3
_Surf-12_S4, S4
_Surf-12_S2, S2
*Elset, elset=_Surf-13_S1, internal, instance=hole1-1
    1,   51,  115,  254,  299,  300,  348,  349,  392,  393,  438,  439,  486,  605,  626,  643
  661,  675,  689,  706,  707,  721,  722,  748,  750,  842,  843,  856,  870,  884,  897,  907
  918,  928,  936,  943,  956,  957,  960,  961,  964,  967,  968, 1012, 1059, 1106, 1152, 1197
 1198, 1246, 1247, 1291, 1292, 1338, 1385, 3431, 3570, 3753, 3757, 3761, 3763, 3776, 3779, 3781
 3783, 3785, 3787, 3789, 3791, 3793, 3797, 3802, 3804, 3806, 3808, 3809, 3811, 3812, 3814, 3821
 3825, 3828, 3831, 3833, 3835, 3840
*Elset, elset=_Surf-13_S3, internal, instance=hole1-1
  163,  209,  534,  580,  690,  944,  950,  951, 1153, 3389, 3419, 3823, 3945
*Elset, elset=_Surf-13_S4, internal, instance=hole1-1
 3816,
*Surface, type=ELEMENT, name=Surf-13
_Surf-13_S1, S1
_Surf-13_S3, S3
_Surf-13_S4, S4
*Elset, elset=_Surf-14_S1, internal, instance=hole1-1
    1,   51,  115,  254,  299,  300,  348,  349,  392,  393,  438,  439,  486,  605,  626,  643
  661,  675,  689,  706,  707,  721,  722,  748,  750,  842,  843,  856,  870,  884,  897,  907
  918,  928,  936,  943,  956,  957,  960,  961,  964,  967,  968, 1012, 1059, 1106, 1152, 1197
 1198, 1246, 1247, 1291, 1292, 1338, 1385, 3431, 3570, 3753, 3757, 3761, 3763, 3776, 3779, 3781
 3783, 3785, 3787, 3789, 3791, 3793, 3797, 3802, 3804, 3806, 3808, 3809, 3811, 3812, 3814, 3821
 3825, 3828, 3831, 3833, 3835, 3840
*Elset, elset=_Surf-14_S3, internal, instance=hole1-1
   50,  163,  209,  534,  580,  690,  944,  950,  951, 1153, 3389, 3419, 3823, 3945
*Elset, elset=_Surf-14_S4, internal, instance=hole1-1
   49,  253,  297,  346,  390,  436,  484,  532,  579,  798, 1150, 1244, 1289, 1336, 1433, 1435
 1643, 1657, 3477, 3478, 3479, 3480, 3481, 3482, 3483, 3484, 3485, 3486, 3497, 3498, 3509, 3510
 3511, 3512, 3513, 3514, 3515, 3516, 3518, 3519, 3520, 3522, 3816
*Elset, elset=_Surf-14_S2, internal, instance=hole1-1
   99,  100,  101,  162,  208,  252,  796, 1011, 1058, 1105, 1195, 1383, 1461, 1482, 1499, 1517
 1533, 1549, 1564, 1565, 1578, 1579, 1616, 1617, 1629, 1670, 1682, 1693, 1703, 1712, 1720, 1726
 1727, 1731, 1732, 1736, 1737, 1740, 3703, 3707, 3715, 3722, 3799, 3850, 3852, 3854, 3855, 3857
 3858, 3859, 3866, 3868, 3870, 3871, 3873, 3874, 3875
*Surface, type=ELEMENT, name=Surf-14
_Surf-14_S1, S1
_Surf-14_S3, S3
_Surf-14_S4, S4
_Surf-14_S2, S2
*End Assembly
** 
** MATERIALS
** 
*Material, name=linear
*Elastic
1000., 0.3
** 
** BOUNDARY CONDITIONS
** 
** Name: circle_fixed Type: Displacement/Rotation
*Boundary
Set-23, 1, 1
Set-23, 2, 2
Set-23, 6, 6
** ----------------------------------------------------------------
** 
** STEP: Step-1
** 
*Step, name=Step-1, nlgeom=NO
*Static
1., 1., 1e-05, 1.
** 
** LOADS
** 
** Name: left_pressure   Type: Pressure Using Field: sin
*Dload, op=NEW
hole1-1.1386, P1, -5.1817
hole1-1.1404, P1, -102.899
hole1-1.1416, P1, -100.254
hole1-1.1428, P1, -38.8822
hole1-1.1433, P3, -1.7278
hole1-1.1434, P4, -5.18171
hole1-1.1934, P1, -12.0708
hole1-1.1969, P1, -18.9122
hole1-1.2024, P3, -25.679
hole1-1.2068, P3, -29.026
hole1-1.2107, P1, -38.8822
hole1-1.2149, P1, -45.2666
hole1-1.2190, P1, -51.4723
hole1-1.2233, P1, -57.4748
hole1-1.2268, P1, -63.2506
hole1-1.2300, P1, -71.4393
hole1-1.2342, P3, -76.5504
hole1-1.2382, P3, -78.9939
hole1-1.2416, P1, -85.8473
hole1-1.2451, P1, -89.9965
** ... 80 like lines cut
** Name: sin   Type: Pressure Using Field: sin
*Dload, op=NEW
hole1-1.2, P4, -4.71064
hole1-1.3, P2, -7.8459
hole1-1.4, P2, -17.1929
hole1-1.5, P2, -23.3445
hole1-1.6, P2, -29.404
hole1-1.7, P2, -35.3475
hole1-1.8, P4, -43.9939
hole1-1.9, P4, -49.5459
hole1-1.10, P4, -54.9023
hole1-1.11, P4, -60.042
hole1-1.12, P4, -64.9448
hole1-1.13, P4, -69.5913
hole1-1.14, P4, -73.9631
hole1-1.15, P4, -78.043
hole1-1.16, P2, -81.815
hole1-1.17, P2, -85.264
hole1-1.18, P2, -88.3766
hole1-1.19, P2, -91.1403
hole1-1.20, P4, -94.6085
hole1-1.21, P4, -96.4557
** ... 80 like lines cut
** Name: sin up   Type: Pressure Using Field: sin up
*Dload, op=NEW
hole1-1.1, P1, -4.71064
hole1-1.51, P1, -7.8459
hole1-1.115, P1, -14.0901
hole1-1.163, P3, -23.3445
hole1-1.209, P3, -26.3873
hole1-1.254, P1, -32.3917
hole1-1.299, P1, -41.1514
hole1-1.300, P1, -43.9939
hole1-1.348, P1, -46.793
hole1-1.349, P1, -49.5459
hole1-1.392, P1, -52.2499
hole1-1.393, P1, -54.9023
hole1-1.438, P1, -57.5005
hole1-1.439, P1, -60.042
hole1-1.486, P1, -62.5243
hole1-1.534, P3, -69.5913
hole1-1.580, P3, -71.8126
hole1-1.605, P1, -76.0406
hole1-1.626, P1, -79.9685
hole1-1.643, P1, -83.5807
** ... 180 like lines cut
** 
** OUTPUT REQUESTS
** 
*Restart, write, frequency=0
** 
** FIELD OUTPUT: F-Output-1
** 
*Output, field, variable=PRESELECT
** 
** HISTORY OUTPUT: H-Output-1
** 
*Output, history, variable=PRESELECT
*End Step

  Part Instance     Node ID  Attached elements     S, S12
----------------------------------------------------------
     HOLE1-1         205        735        24.
     HOLE1-1         205       1931        24.
     HOLE1-1        2204        735        26.
     HOLE1-1        2204       1932        26.
     HOLE1-1         204        734        27.
     HOLE1-1         204       1932        27.
     HOLE1-1        2203        734        29.
     HOLE1-1        2203       1933        29.
     HOLE1-1        2202       1933        30.
     HOLE1-1        2202       3582        30.
     HOLE1-1         203        733        31.
     HOLE1-1         203       3582        31.
     HOLE1-1        2201        733        31.
     HOLE1-1        2201       3581        31.
     HOLE1-1        2200       3580        32.
     HOLE1-1        2200       3581        32.
     HOLE1-1         202        719        32.
     HOLE1-1         202       3580        32.
     HOLE1-1        2199        703        32.
     HOLE1-1        2199        719        32.
** ... 28 like lines cut
     HOLE1-1        2189        623  -841.E-03
     HOLE1-1        2189        624  -841.E-03
     HOLE1-1        2188        624        -3.
     HOLE1-1        2188       3576        -3.
     HOLE1-1         196        625        -6.
     HOLE1-1         196       3576        -6.
     HOLE1-1        2187        625        -7.
     HOLE1-1        2187       3575        -7.
     HOLE1-1        2186       3574        -9.
     HOLE1-1        2186       3575        -9.
     HOLE1-1         195        597       -10.
     HOLE1-1         195       3574       -10.
     HOLE1-1        2185        597       -10.
     HOLE1-1        2185        599       -10.
     HOLE1-1        2184        599       -10.
     HOLE1-1        2184       3637       -10.
     HOLE1-1         194        601       -10.
     HOLE1-1         194       3637       -10.
     HOLE1-1        2183        601        -9.
     HOLE1-1        2183       3573        -9.
     HOLE1-1        2182       3572        -7.
     HOLE1-1        2182       3573        -7.
** ... 30 like lines cut
     HOLE1-1        2272       3208   845.E-03
     HOLE1-1        2272       3607   845.E-03
     HOLE1-1         239       1812        -2.
     HOLE1-1         239       3208        -2.
     HOLE1-1        2271       1812        -5.
     HOLE1-1        2271       3656        -5.
     HOLE1-1        2270       3193        -8.
     HOLE1-1        2270       3656        -8.
     HOLE1-1         238       3157       -11.
     HOLE1-1         238       3193       -11.
     HOLE1-1        2269       1813       -14.
     HOLE1-1        2269       3157       -14.
     HOLE1-1        2268       1813       -17.
     HOLE1-1        2268       3633       -17.
     HOLE1-1         237       3158       -20.
     HOLE1-1         237       3633       -20.
     HOLE1-1        2267       1814       -23.
     HOLE1-1        2267       3158       -23.
     HOLE1-1        2266       1814       -25.
     HOLE1-1        2266       3606       -25.
     HOLE1-1         236       1825       -27.
     HOLE1-1         236       3606       -27.
** ... 62 like lines cut
     HOLE1-1         225       1516  -767.E-03
     HOLE1-1         225       1532  -767.E-03
     HOLE1-1        2244       1514  -246.E-03
     HOLE1-1        2244       1516  -246.E-03
     HOLE1-1        2243       1514   191.E-03
     HOLE1-1        2243       1515   191.E-03
     HOLE1-1         224       1515   549.E-03
     HOLE1-1         224       2660   549.E-03
     HOLE1-1        2242       1497   836.E-03
     HOLE1-1        2242       2660   836.E-03
     HOLE1-1        2241       1497         1.
     HOLE1-1        2241       1498         1.
     HOLE1-1         223       1479         1.
     HOLE1-1         223       1498         1.
     HOLE1-1         223       3691         1.
     HOLE1-1        2240       1479         1.
     HOLE1-1        2240       3598         1.
     HOLE1-1        2239       3597         1.
     HOLE1-1        2239       3598         1.
     HOLE1-1         222       1481         1.
     HOLE1-1         222       3597         1.
     HOLE1-1        2238       1481         1.
     HOLE1-1        2238       3596         1.
     HOLE1-1        2237       3595         1.
     HOLE1-1        2237       3596         1.
     HOLE1-1         221       1454         1.
     HOLE1-1         221       3595         1.
     HOLE1-1        2236       1454         1.
     HOLE1-1        2236       3594         1.
     HOLE1-1        2235       3593         1.
     HOLE1-1        2235       3594         1.
     HOLE1-1         220       1457   989.E-03
     HOLE1-1         220       3593   989.E-03
     HOLE1-1        2234       1457   846.E-03
     HOLE1-1        2234       3592   846.E-03
     HOLE1-1        2233       2576   692.E-03
     HOLE1-1        2233       3592   692.E-03
     HOLE1-1         219       2576   527.E-03
     HOLE1-1         219       3661   527.E-03
     HOLE1-1        2232        819   355.E-03
     HOLE1-1        2232       3661   355.E-03
     HOLE1-1        2231        819   179.E-03
     HOLE1-1        2231        820   179.E-03
     HOLE1-1         218        820   107.E-06
     HOLE1-1         218       3642   107.E-06
     HOLE1-1        2230       1855  -178.E-03
     HOLE1-1        2230       3642  -178.E-03
     HOLE1-1        2229       1855  -355.E-03
     HOLE1-1        2229       3590  -355.E-03
     HOLE1-1         217        821  -526.E-03
     HOLE1-1         217       3590  -526.E-03
** ... 6 like lines cut
     HOLE1-1        2226       1857        -1.
     HOLE1-1        2226       3587        -1.
     HOLE1-1        2225       1860        -1.
     HOLE1-1        2225       3587        -1.
     HOLE1-1         215       1860        -1.
     HOLE1-1         215       1878        -1.
     HOLE1-1        2224       1878        -1.
     HOLE1-1        2224       3586        -1.
     HOLE1-1        2223       1879        -1.
     HOLE1-1        2223       3586        -1.
     HOLE1-1         214       1879        -1.
     HOLE1-1         214       3679        -1.
     HOLE1-1        2222       2497        -1.
     HOLE1-1        2222       3679        -1.
     HOLE1-1        2221       2496        -1.
     HOLE1-1        2221       2497        -1.
     HOLE1-1         213       1880        -1.
     HOLE1-1         213       2496        -1.
     HOLE1-1        2220       1880        -1.
     HOLE1-1        2220       3682        -1.
     HOLE1-1        2219       2483  -833.E-03
     HOLE1-1        2219       3682  -833.E-03
     HOLE1-1         212       2431  -543.E-03
     HOLE1-1         212       2483  -543.E-03
     HOLE1-1        2218       1881  -176.E-03
     HOLE1-1        2218       2431  -176.E-03
     HOLE1-1        2217       1881   249.E-03
     HOLE1-1        2217       2432   249.E-03
     HOLE1-1         211       2432   767.E-03
     HOLE1-1         211       3675   767.E-03
     HOLE1-1        2216       1882         1.
     HOLE1-1        2216       3675         1.
     HOLE1-1        2215       1882         2.
     HOLE1-1        2215       3585         2.
     HOLE1-1         210       1893         3.
     HOLE1-1         210       3585         3.
     HOLE1-1        2214       1893         4.
     HOLE1-1        2214       1904         4.
     HOLE1-1        2213       1904         5.
     HOLE1-1        2213       3584         5.
     HOLE1-1         209       3584         6.
     HOLE1-1         209       3664         6.
     HOLE1-1        2212       2396         7.
     HOLE1-1        2212       3664         7.
     HOLE1-1        2211       1916         8.
     HOLE1-1        2211       2396         8.
     HOLE1-1         208       1916        10.
     HOLE1-1         208       1921        10.
     HOLE1-1        2210       1921        11.
     HOLE1-1        2210       1922        11.
** ... 14 like lines cut